/*--------------------------------*- C++ -*----------------------------------*\
  =========                 |
  \\      /  F ield         | OpenFOAM: The Open Source CFD Toolbox
   \\    /   O peration     | Website:  https://openfoam.org
    \\  /    A nd           | Version:  6
     \\/     M anipulation  |
\*---------------------------------------------------------------------------*/
FoamFile
{
    version     2.0;
    format      ascii;
    class       polyBoundaryMesh;
    location    "constant/polyMesh";
    object      boundary;
}
// * * * * * * * * * * * * * * * * * * * * * * * * * * * * * * * * * * * * * //

8
(
    inlet
    {
        type            patch;
        nFaces          984;
        startFace       184155;
    }
    outlet
    {
        type            patch;
        nFaces          0;
        startFace       185139;
    }
    roughCylinder
    {
        type            wall;
        inGroups        1(wall);
        nFaces          0;
        startFace       185139;
    }
    sideWall
    {
        type            wall;
        inGroups        1(wall);
        nFaces          1176;
        startFace       185139;
    }
    bottom
    {
        type            wall;
        inGroups        1(wall);
        nFaces          2637;
        startFace       186315;
    }
    top
    {
        type            patch;
        nFaces          2633;
        startFace       188952;
    }
    procBoundary0to1
    {
        type            processor;
        inGroups        1(processor);
        nFaces          2188;
        startFace       191585;
        matchTolerance  0.0001;
        transform       unknown;
        myProcNo        0;
        neighbProcNo    1;
    }
    procBoundary0to3
    {
        type            processor;
        inGroups        1(processor);
        nFaces          1656;
        startFace       193773;
        matchTolerance  0.0001;
        transform       unknown;
        myProcNo        0;
        neighbProcNo    3;
    }
)

// ************************************************************************* //
