/*--------------------------------*- C++ -*----------------------------------*\
  =========                 |
  \\      /  F ield         | OpenFOAM: The Open Source CFD Toolbox
   \\    /   O peration     | Website:  https://openfoam.org
    \\  /    A nd           | Version:  6
     \\/     M anipulation  |
\*---------------------------------------------------------------------------*/
FoamFile
{
    version     2.0;
    format      ascii;
    class       polyBoundaryMesh;
    location    "constant/polyMesh";
    object      boundary;
}
// * * * * * * * * * * * * * * * * * * * * * * * * * * * * * * * * * * * * * //

8
(
    inlet
    {
        type            patch;
        nFaces          984;
        startFace       185055;
    }
    outlet
    {
        type            patch;
        nFaces          0;
        startFace       186039;
    }
    roughCylinder
    {
        type            wall;
        inGroups        1(wall);
        nFaces          0;
        startFace       186039;
    }
    sideWall
    {
        type            wall;
        inGroups        1(wall);
        nFaces          1176;
        startFace       186039;
    }
    bottom
    {
        type            wall;
        inGroups        1(wall);
        nFaces          2649;
        startFace       187215;
    }
    top
    {
        type            patch;
        nFaces          2647;
        startFace       189864;
    }
    procBoundary3to0
    {
        type            processor;
        inGroups        1(processor);
        nFaces          1656;
        startFace       192511;
        matchTolerance  0.0001;
        transform       unknown;
        myProcNo        3;
        neighbProcNo    0;
    }
    procBoundary3to4
    {
        type            processor;
        inGroups        1(processor);
        nFaces          2186;
        startFace       194167;
        matchTolerance  0.0001;
        transform       unknown;
        myProcNo        3;
        neighbProcNo    4;
    }
)

// ************************************************************************* //
