/*--------------------------------*- C++ -*----------------------------------*\
| =========                 |                                                 |
| \\      /  F ield         | OpenFOAM: The Open Source CFD Toolbox           |
|  \\    /   O peration     | Version:  3.0.1                                 |
|   \\  /    A nd           | Web:      www.OpenFOAM.org                      |
|    \\/     M anipulation  |                                                 |
\*---------------------------------------------------------------------------*/
FoamFile
{
    version     2.0;
    format      ascii;
    class       dictionary;
    location    "system";
    object      fvSolution;
}
// * * * * * * * * * * * * * * * * * * * * * * * * * * * * * * * * * * * * * //

solvers
{
    p
    {
        solver          PCG;
        preconditioner  DIC;
        tolerance       5e-05;
        relTol          0.0;
    }

    pFinal
    {
        solver          PCG;
        preconditioner  DIC;
        tolerance       1e-06;
        relTol          0;
    }

    "(U|k|omega|epsilon|nuTilda).*"
    {
        solver          smoothSolver;
        smoother        symGaussSeidel;
        nSweeps         1;
        tolerance       1e-7;
        relTol          0.01;
    };
}

PIMPLE
{
    momentumPredictor no;
    nCorrectors     2;
    nNonOrthogonalCorrectors 2;
    // nOuterCorrectors 2;
}

PISO
{
    nCorrectors     2;
    nNonOrthogonalCorrectors 2;
    pRefCell        0;
    pRefValue       0;
}

relaxationFactors
{
    equations
    {
        ".*" 0.7;
    }
}


// ************************************************************************* //
