/*--------------------------------*- C++ -*----------------------------------*\
  =========                 |
  \\      /  F ield         | OpenFOAM: The Open Source CFD Toolbox
   \\    /   O peration     | Website:  https://openfoam.org
    \\  /    A nd           | Version:  6
     \\/     M anipulation  |
\*---------------------------------------------------------------------------*/
FoamFile
{
    version     2.0;
    format      ascii;
    class       polyBoundaryMesh;
    location    "constant/polyMesh";
    object      boundary;
}
// * * * * * * * * * * * * * * * * * * * * * * * * * * * * * * * * * * * * * //

8
(
    inlet
    {
        type            patch;
        nFaces          0;
        startFace       184845;
    }
    outlet
    {
        type            patch;
        nFaces          984;
        startFace       184845;
    }
    roughCylinder
    {
        type            wall;
        inGroups        1(wall);
        nFaces          0;
        startFace       185829;
    }
    sideWall
    {
        type            wall;
        inGroups        1(wall);
        nFaces          1440;
        startFace       185829;
    }
    bottom
    {
        type            wall;
        inGroups        1(wall);
        nFaces          2643;
        startFace       187269;
    }
    top
    {
        type            patch;
        nFaces          2643;
        startFace       189912;
    }
    procBoundary2to1
    {
        type            processor;
        inGroups        1(processor);
        nFaces          1560;
        startFace       192555;
        matchTolerance  0.0001;
        transform       unknown;
        myProcNo        2;
        neighbProcNo    1;
    }
    procBoundary2to5
    {
        type            processor;
        inGroups        1(processor);
        nFaces          1632;
        startFace       194115;
        matchTolerance  0.0001;
        transform       unknown;
        myProcNo        2;
        neighbProcNo    5;
    }
)

// ************************************************************************* //
