/*--------------------------------*- C++ -*----------------------------------*\
  =========                 |
  \\      /  F ield         | OpenFOAM: The Open Source CFD Toolbox
   \\    /   O peration     | Website:  https://openfoam.org
    \\  /    A nd           | Version:  6
     \\/     M anipulation  |
\*---------------------------------------------------------------------------*/
FoamFile
{
    version     2.0;
    format      ascii;
    class       polyBoundaryMesh;
    location    "constant/polyMesh";
    object      boundary;
}
// * * * * * * * * * * * * * * * * * * * * * * * * * * * * * * * * * * * * * //

9
(
    inlet
    {
        type            patch;
        nFaces          0;
        startFace       183697;
    }
    outlet
    {
        type            patch;
        nFaces          0;
        startFace       183697;
    }
    roughCylinder
    {
        type            wall;
        inGroups        1(wall);
        nFaces          1920;
        startFace       183697;
    }
    sideWall
    {
        type            wall;
        inGroups        1(wall);
        nFaces          432;
        startFace       185617;
    }
    bottom
    {
        type            wall;
        inGroups        1(wall);
        nFaces          2637;
        startFace       186049;
    }
    top
    {
        type            patch;
        nFaces          2638;
        startFace       188686;
    }
    procBoundary4to1
    {
        type            processor;
        inGroups        1(processor);
        nFaces          912;
        startFace       191324;
        matchTolerance  0.0001;
        transform       unknown;
        myProcNo        4;
        neighbProcNo    1;
    }
    procBoundary4to3
    {
        type            processor;
        inGroups        1(processor);
        nFaces          2186;
        startFace       192236;
        matchTolerance  0.0001;
        transform       unknown;
        myProcNo        4;
        neighbProcNo    3;
    }
    procBoundary4to5
    {
        type            processor;
        inGroups        1(processor);
        nFaces          1561;
        startFace       194422;
        matchTolerance  0.0001;
        transform       unknown;
        myProcNo        4;
        neighbProcNo    5;
    }
)

// ************************************************************************* //
