/*--------------------------------*- C++ -*----------------------------------*\
  =========                 |
  \\      /  F ield         | OpenFOAM: The Open Source CFD Toolbox
   \\    /   O peration     | Website:  https://openfoam.org
    \\  /    A nd           | Version:  6
     \\/     M anipulation  |
\*---------------------------------------------------------------------------*/
FoamFile
{
    version     2.0;
    format      ascii;
    class       polyBoundaryMesh;
    location    "constant/polyMesh";
    object      boundary;
}
// * * * * * * * * * * * * * * * * * * * * * * * * * * * * * * * * * * * * * //

8
(
    inlet
    {
        type            patch;
        nFaces          0;
        startFace       184750;
    }
    outlet
    {
        type            patch;
        nFaces          984;
        startFace       184750;
    }
    roughCylinder
    {
        type            wall;
        inGroups        1(wall);
        nFaces          0;
        startFace       185734;
    }
    sideWall
    {
        type            wall;
        inGroups        1(wall);
        nFaces          1440;
        startFace       185734;
    }
    bottom
    {
        type            wall;
        inGroups        1(wall);
        nFaces          2641;
        startFace       187174;
    }
    top
    {
        type            patch;
        nFaces          2642;
        startFace       189815;
    }
    procBoundary5to2
    {
        type            processor;
        inGroups        1(processor);
        nFaces          1632;
        startFace       192457;
        matchTolerance  0.0001;
        transform       unknown;
        myProcNo        5;
        neighbProcNo    2;
    }
    procBoundary5to4
    {
        type            processor;
        inGroups        1(processor);
        nFaces          1561;
        startFace       194089;
        matchTolerance  0.0001;
        transform       unknown;
        myProcNo        5;
        neighbProcNo    4;
    }
)

// ************************************************************************* //
