/*--------------------------------*- C++ -*----------------------------------*\
  =========                 |
  \\      /  F ield         | OpenFOAM: The Open Source CFD Toolbox
   \\    /   O peration     | Website:  https://openfoam.org
    \\  /    A nd           | Version:  6
     \\/     M anipulation  |
\*---------------------------------------------------------------------------*/
FoamFile
{
    version     2.0;
    format      ascii;
    class       polyBoundaryMesh;
    location    "constant/polyMesh";
    object      boundary;
}
// * * * * * * * * * * * * * * * * * * * * * * * * * * * * * * * * * * * * * //

7
(
    freeSurface
    {
        type            patch;
        nFaces          30;
        startFace       1818;
    }
    inlet
    {
        type            cyclic;
        inGroups        1(cyclic);
        nFaces          240;
        startFace       1848;
        matchTolerance  0.0001;
        transform       unknown;
        neighbourPatch  outlet;
    }
    outlet
    {
        type            cyclic;
        inGroups        1(cyclic);
        nFaces          240;
        startFace       2088;
        matchTolerance  0.0001;
        transform       unknown;
        neighbourPatch  inlet;
    }
    sidewalls
    {
        type            wall;
        inGroups        1(wall);
        nFaces          0;
        startFace       2328;
    }
    noSlipWalls
    {
        type            wall;
        inGroups        1(wall);
        nFaces          30;
        startFace       2328;
    }
    procBoundary1to0
    {
        type            processor;
        inGroups        1(processor);
        nFaces          72;
        startFace       2358;
        matchTolerance  0.0001;
        transform       unknown;
        myProcNo        1;
        neighbProcNo    0;
    }
    procBoundary1to2
    {
        type            processor;
        inGroups        1(processor);
        nFaces          72;
        startFace       2430;
        matchTolerance  0.0001;
        transform       unknown;
        myProcNo        1;
        neighbProcNo    2;
    }
)

// ************************************************************************* //
